this is a text file.
End of the file.
edit
commit here.
edit
new line.
after migr5.
migr5 once again.